I"Ü/Users/yaminikumawat/Flatiron%20Coursework/module%202/rails/rails-dynamic-request-readme-web-071717/app/assets/stylesheets/application.css?type=text/css&id=053b2c872dcaea3f91caa1c7c3acc1860d65d36bc87d1151d202e36aa87366a0:ET