I"é/Users/yaminikumawat/Flatiron%20Coursework/module%202/rails/rails-dynamic-request-readme-web-071717/app/assets/javascripts/application.js?type=application/javascript&id=cdafab21c273ad2aa4e2595fbfbee55f5504ccd29b10c68a7a981c79aef54350:ET