[o:Set:
@hash}I"environment-version:ETTI"environment-paths;TTI"rails-env;TTI"0processors:type=text/css&file_type=text/css;TTI"˜file-digest:///Users/yaminikumawat/Flatiron%20Coursework/module%202/rails/rails-dynamic-request-readme-web-071717/app/assets/stylesheets/application.css;TTI">processors:type=text/css&file_type=text/css&pipeline=self;TTI"ˆfile-digest:///Users/yaminikumawat/Flatiron%20Coursework/module%202/rails/rails-dynamic-request-readme-web-071717/app/assets/stylesheets;TTF