I"÷/Users/yaminikumawat/Flatiron%20Coursework/module%202/rails/rails-dynamic-request-readme-web-071717/app/assets/javascripts/application.js?type=application/javascript&pipeline=self&id=e45010371892cc9bd2cb44de17f34b217b5830c9c9c327d9e0dae245e8404cf3:ET