I"ê/Users/yaminikumawat/Flatiron%20Coursework/module%202/rails/rails-dynamic-request-readme-web-071717/app/assets/stylesheets/application.css?type=text/css&pipeline=self&id=664879813d8428403ce818776c3be1d667eac2e6ff7f6256d3444eabf845cbb0:ET